# Generated using pymatgen and GALLOP
# GALLOP External Coords = -0.18397605,-0.45955673,0.114394285,-0.25438637,-0.2971053,-0.10416502,0.38878834,0.8599272,0.8818814,-0.19542068
# GALLOP Internal Coords = -1.2249811,2.9158657,-0.9684644,-1.2049476,-3.0556402,2.10362,3.073669,-3.0327055,1.5655152,-0.0070409114,-0.18277872,-0.057246108,0.27925968
# Profile chisqd = 16.716
data_VerapamilHCl_0008_56.244_chisqd_252_refs_3.8_mins.cif
_symmetry_space_group_name_H-M   P-1
_cell_length_a   7.08991000
_cell_length_b   10.59464000
_cell_length_c   19.20684000
_cell_angle_alpha   100.10680000
_cell_angle_beta   93.73960000
_cell_angle_gamma   101.56100000
_symmetry_Int_Tables_number   2
_chemical_formula_structural   H39C27N2ClO4
_chemical_formula_sum   'H39 C27 N2 Cl1 O4'
_cell_volume   1383.96091643
_cell_formula_units_Z   2
_diffrn_radiation_wavelength   1.54056
_diffrn_radiation_type   'Cu K\a'
loop_
 _symmetry_equiv_pos_site_id
 _symmetry_equiv_pos_as_xyz
  1  'x, y, z'
  2  '-x, -y, -z'
loop_
 _atom_site_type_symbol
 _atom_site_label
 _atom_site_symmetry_multiplicity
 _atom_site_fract_x
 _atom_site_fract_y
 _atom_site_fract_z
 _atom_site_occupancy
  Cl  Cl1  1  -0.18397605  -0.45955673  0.11439428  1.0
  C  C10  1  -0.25438637  -0.29710531  -0.10416502  1.0
  C  C9  1  -0.30251628  -0.41841269  -0.06890383  1.0
  C  C11  1  -0.03188883  -0.23876680  -0.09698803  1.0
  H  H11  1  -0.30048633  -0.32725799  -0.16045924  1.0
  H  H12  1  -0.32266131  -0.23056698  -0.08587252  1.0
  N  N1  1  -0.24275841  -0.54091293  -0.10742707  1.0
  H  H9  1  -0.44728070  -0.44745314  -0.06686901  1.0
  H  H10  1  -0.23165497  -0.39811265  -0.01997486  1.0
  C  C12  1  0.01739544  -0.13916638  -0.14630827  1.0
  H  H13  1  0.00201902  -0.19301693  -0.04643394  1.0
  H  H14  1  0.03560579  -0.31309533  -0.10990687  1.0
  C  C8  1  -0.33166391  -0.57765532  -0.18549819  1.0
  C  C21  1  -0.30445832  -0.64820260  -0.06643981  1.0
  H  H8  1  -0.10041106  -0.52109832  -0.10528392  1.0
  C  C13  1  -0.01636997  -0.20843807  -0.22502106  1.0
  C  C22  1  0.23318166  -0.06064546  -0.12826332  1.0
  C  C25  1  -0.10927504  -0.04400223  -0.13548300  1.0
  C  C7  1  -0.28248310  -0.70836473  -0.22044763  1.0
  H  H6  1  -0.26465458  -0.50041580  -0.21151704  1.0
  H  H7  1  -0.47579938  -0.57904124  -0.18899384  1.0
  H  H24  1  -0.25469142  -0.70858836  -0.08610868  1.0
  H  H25  1  -0.25022802  -0.61408639  -0.01517634  1.0
  H  H26  1  -0.45251063  -0.67431402  -0.07100651  1.0
  C  C14  1  -0.14356670  -0.18040940  -0.27469921  1.0
  C  C18  1  0.09822968  -0.30159971  -0.24483554  1.0
  C  C23  1  0.28968215  0.03370208  -0.18097609  1.0
  C  C24  1  0.27218145  0.02341574  -0.05192882  1.0
  H  H27  1  0.31793690  -0.12844117  -0.13145137  1.0
  N  N2  1  -0.20768157  0.02928483  -0.12501855  1.0
  C  C1  1  -0.35301697  -0.73466647  -0.30018264  1.0
  H  H4  1  -0.35745165  -0.77994919  -0.19776523  1.0
  H  H5  1  -0.14313477  -0.70282495  -0.21309671  1.0
  C  C15  1  -0.16172610  -0.24599880  -0.34619635  1.0
  H  H15  1  -0.22027597  -0.11358333  -0.26131079  1.0
  C  C17  1  0.08038080  -0.36326474  -0.31534755  1.0
  H  H17  1  0.17183569  -0.32416493  -0.20468558  1.0
  H  H28  1  0.20743826  0.09884009  -0.17304759  1.0
  H  H29  1  0.43064749  0.07897741  -0.17462930  1.0
  H  H30  1  0.26871419  -0.02005383  -0.23263587  1.0
  H  H31  1  0.20524070  0.08761707  -0.04948973  1.0
  H  H32  1  0.23311615  -0.03760782  -0.01618914  1.0
  H  H33  1  0.41791087  0.06431606  -0.04007373  1.0
  C  C2  1  -0.22735932  -0.68587947  -0.34756762  1.0
  C  C6  1  -0.54116297  -0.80772310  -0.32513303  1.0
  C  C16  1  -0.04920572  -0.33602270  -0.36622453  1.0
  H  H16  1  -0.25951496  -0.23015729  -0.38296321  1.0
  O  O4  1  0.18706873  -0.45289570  -0.34158903  1.0
  C  C3  1  -0.28419140  -0.71616900  -0.42099020  1.0
  H  H1  1  -0.09654413  -0.62746179  -0.32732671  1.0
  C  C5  1  -0.59379447  -0.83651054  -0.39656135  1.0
  H  H3  1  -0.63527453  -0.84283036  -0.28922504  1.0
  O  O3  1  -0.05419198  -0.40487662  -0.43468159  1.0
  C  C27  1  0.32763052  -0.48366630  -0.29211092  1.0
  C  C4  1  -0.46499008  -0.79450387  -0.44633383  1.0
  H  H2  1  -0.18877023  -0.67922091  -0.45320439  1.0
  O  O2  1  -0.77408922  -0.90724158  -0.42803681  1.0
  C  C26  1  -0.20945822  -0.39716956  -0.48537675  1.0
  H  H37  1  0.41963905  -0.39791211  -0.27127779  1.0
  H  H38  1  0.25722849  -0.52401841  -0.25442904  1.0
  H  H39  1  0.39393806  -0.55031478  -0.32009676  1.0
  O  O1  1  -0.53057098  -0.83788443  -0.51710474  1.0
  C  C20  1  -0.91007864  -0.95883673  -0.38217598  1.0
  H  H34  1  -0.16398798  -0.31155902  -0.48987833  1.0
  H  H35  1  -0.21829319  -0.46311340  -0.53206253  1.0
  H  H36  1  -0.33915246  -0.41636181  -0.46662027  1.0
  C  C19  1  -0.38532129  -0.82835972  -0.56665647  1.0
  H  H21  1  -0.91154546  -1.03708386  -0.38909802  1.0
  H  H22  1  -0.87102693  -0.91449451  -0.33089948  1.0
  H  H23  1  -1.04331875  -0.94419742  -0.39788875  1.0
  H  H18  1  -0.43818069  -0.89494944  -0.61345947  1.0
  H  H19  1  -0.35993099  -0.73455846  -0.57707101  1.0
  H  H20  1  -0.24995565  -0.83951169  -0.54723370  1.0
