# Generated using pymatgen and GALLOP
# GALLOP External Coords = 0.9437689,0.6044506,0.09386396,-0.2731315,-0.062691316,0.79497755,-0.8006076,-0.9385266,0.6637632,0.9847453
# GALLOP Internal Coords = -1.1340923,2.093454,-1.1273285,0.6695044,0.19035406,3.4733171,-2.678794,-2.6426241,3.0563333,4.704991,-3.3358288,0.57386637,1.17191
# Profile chisqd = 164.123
data_VerapamilHCl_0001_433.496_chisqd_252_refs_0.5_mins.cif
_symmetry_space_group_name_H-M   P-1
_cell_length_a   7.08991000
_cell_length_b   10.59464000
_cell_length_c   19.20684000
_cell_angle_alpha   100.10680000
_cell_angle_beta   93.73960000
_cell_angle_gamma   101.56100000
_symmetry_Int_Tables_number   2
_chemical_formula_structural   H39C27N2ClO4
_chemical_formula_sum   'H39 C27 N2 Cl1 O4'
_cell_volume   1383.96091643
_cell_formula_units_Z   2
_diffrn_radiation_wavelength   1.54056
_diffrn_radiation_type   'Cu K\a'
loop_
 _symmetry_equiv_pos_site_id
 _symmetry_equiv_pos_as_xyz
  1  'x, y, z'
  2  '-x, -y, -z'
loop_
 _atom_site_type_symbol
 _atom_site_label
 _atom_site_symmetry_multiplicity
 _atom_site_fract_x
 _atom_site_fract_y
 _atom_site_fract_z
 _atom_site_occupancy
  Cl  Cl1  1  0.94376892  0.60445058  0.09386396  1.0
  C  C10  1  -0.27313149  -0.06269132  0.79497755  1.0
  C  C9  1  -0.23500815  0.08333603  0.83158129  1.0
  C  C11  1  -0.27624941  -0.15506528  0.85016745  1.0
  H  H11  1  -0.41495502  -0.08907171  0.76541448  1.0
  H  H12  1  -0.18144828  -0.07870786  0.76143914  1.0
  N  N1  1  -0.39343476  0.12088825  0.87608665  1.0
  H  H9  1  -0.22454229  0.14338842  0.79551905  1.0
  H  H10  1  -0.11413865  0.10551587  0.86546528  1.0
  C  C12  1  -0.47347328  -0.25217348  0.84258747  1.0
  H  H13  1  -0.17296672  -0.20445484  0.83862537  1.0
  H  H14  1  -0.25069892  -0.09906801  0.89914858  1.0
  C  C8  1  -0.58413827  0.10374318  0.82875377  1.0
  C  C21  1  -0.31877843  0.25978696  0.91547352  1.0
  H  H8  1  -0.41221461  0.06286694  0.91107100  1.0
  C  C13  1  -0.55396199  -0.30042803  0.76382560  1.0
  C  C22  1  -0.62374938  -0.18707550  0.88456404  1.0
  C  C25  1  -0.44805527  -0.36717433  0.87292731  1.0
  C  C7  1  -0.56567764  0.02874789  0.75376093  1.0
  H  H6  1  -0.60321653  0.20102619  0.82529211  1.0
  H  H7  1  -0.69876122  0.06082493  0.85185152  1.0
  H  H24  1  -0.40314072  0.27123344  0.94298863  1.0
  H  H25  1  -0.18869641  0.26481336  0.94172895  1.0
  H  H26  1  -0.30728582  0.32210219  0.88003749  1.0
  C  C14  1  -0.74634945  -0.35657197  0.74158674  1.0
  C  C18  1  -0.41774184  -0.27927113  0.71396983  1.0
  C  C23  1  -0.78182304  -0.29197019  0.90787029  1.0
  C  C24  1  -0.52686357  -0.08669657  0.95251602  1.0
  H  H27  1  -0.68557322  -0.13788843  0.85132402  1.0
  N  N2  1  -0.42388371  -0.45395571  0.89784771  1.0
  C  C1  1  -0.69834495  0.07194118  0.70011085  1.0
  H  H4  1  -0.61361265  -0.06838430  0.75347006  1.0
  H  H5  1  -0.43113858  0.04774014  0.74311537  1.0
  C  C15  1  -0.80886924  -0.39476907  0.66824031  1.0
  H  H15  1  -0.84203941  -0.36873746  0.77616936  1.0
  C  C17  1  -0.48255450  -0.31555772  0.64237773  1.0
  H  H17  1  -0.28048161  -0.24978858  0.73463237  1.0
  H  H28  1  -0.71275425  -0.33169496  0.94167161  1.0
  H  H29  1  -0.88909531  -0.25571078  0.93041784  1.0
  H  H30  1  -0.85220200  -0.35946262  0.86330354  1.0
  H  H31  1  -0.47993767  -0.13000014  0.98368704  1.0
  H  H32  1  -0.41957444  -0.01701253  0.93808651  1.0
  H  H33  1  -0.62696636  -0.03833679  0.97510642  1.0
  C  C2  1  -0.69714898  0.02556358  0.62697923  1.0
  C  C6  1  -0.82033712  0.15630351  0.72440034  1.0
  C  C16  1  -0.67761648  -0.37334001  0.61917722  1.0
  H  H16  1  -0.94834244  -0.44050640  0.65089881  1.0
  O  O4  1  -0.36581588  -0.29704428  0.58884060  1.0
  C  C3  1  -0.82622790  0.05666807  0.57742697  1.0
  H  H1  1  -0.59975308  -0.02924727  0.61112869  1.0
  C  C5  1  -0.94504249  0.18522817  0.67560875  1.0
  H  H3  1  -0.81902653  0.19177987  0.77925664  1.0
  O  O3  1  -0.72337818  -0.40585333  0.54631507  1.0
  C  C27  1  -0.34814373  -0.17465085  0.56280178  1.0
  C  C4  1  -0.95471787  0.13336676  0.60118830  1.0
  H  H2  1  -0.82071316  0.02080742  0.52526140  1.0
  O  O2  1  -1.07227588  0.26684034  0.69230705  1.0
  C  C26  1  -0.57710385  -0.35466790  0.50343430  1.0
  H  H37  1  -0.48334461  -0.17083040  0.54528922  1.0
  H  H38  1  -0.28881177  -0.09882961  0.60313112  1.0
  H  H39  1  -0.25834599  -0.17739232  0.52340329  1.0
  O  O1  1  -1.09607470  0.16233812  0.55810237  1.0
  C  C20  1  -1.01136851  0.37486184  0.75157982  1.0
  H  H34  1  -0.49271655  -0.40758264  0.51137251  1.0
  H  H35  1  -0.62958425  -0.36866093  0.45099807  1.0
  H  H36  1  -0.52555329  -0.25760111  0.51973987  1.0
  C  C19  1  -1.25208163  0.05351901  0.52502227  1.0
  H  H21  1  -1.07326007  0.35238588  0.78323734  1.0
  H  H22  1  -0.86710465  0.39359289  0.76482189  1.0
  H  H23  1  -1.04892778  0.45630264  0.73799765  1.0
  H  H18  1  -1.37205672  0.08976395  0.51167381  1.0
  H  H19  1  -1.20752573  0.00651210  0.47936326  1.0
  H  H20  1  -1.28712022  -0.01956048  0.55491781  1.0
