# Generated using pymatgen and GALLOP
# GALLOP External Coords = 0.81606776,-0.4595503,0.11440768,0.7458696,-0.29751703,-0.10439182,0.43312094,0.94645816,0.97346824,-0.21417886
# GALLOP Internal Coords = -1.234402,2.9187548,-0.9630125,-1.1998109,3.2226715,2.1037288,3.0731359,3.2492714,1.5672767,-0.007357494,-0.18131748,-0.057466056,0.28037336
# Profile chisqd = 16.715
data_VerapamilHCl_0004_56.249_chisqd_252_refs_1.9_mins.cif
_symmetry_space_group_name_H-M   P-1
_cell_length_a   7.08991000
_cell_length_b   10.59464000
_cell_length_c   19.20684000
_cell_angle_alpha   100.10680000
_cell_angle_beta   93.73960000
_cell_angle_gamma   101.56100000
_symmetry_Int_Tables_number   2
_chemical_formula_structural   H39C27N2ClO4
_chemical_formula_sum   'H39 C27 N2 Cl1 O4'
_cell_volume   1383.96091643
_cell_formula_units_Z   2
_diffrn_radiation_wavelength   1.54056
_diffrn_radiation_type   'Cu K\a'
loop_
 _symmetry_equiv_pos_site_id
 _symmetry_equiv_pos_as_xyz
  1  'x, y, z'
  2  '-x, -y, -z'
loop_
 _atom_site_type_symbol
 _atom_site_label
 _atom_site_symmetry_multiplicity
 _atom_site_fract_x
 _atom_site_fract_y
 _atom_site_fract_z
 _atom_site_occupancy
  Cl  Cl1  1  0.81606776  -0.45955029  0.11440768  1.0
  C  C10  1  0.74586958  -0.29751703  -0.10439182  1.0
  C  C9  1  0.69794083  -0.41854906  -0.06890170  1.0
  C  C11  1  0.96824569  -0.23862746  -0.09692727  1.0
  H  H11  1  0.70045388  -0.32809868  -0.16071792  1.0
  H  H12  1  0.67698830  -0.23114780  -0.08639707  1.0
  N  N1  1  0.75710535  -0.54131246  -0.10738397  1.0
  H  H9  1  0.55324084  -0.44739300  -0.06665228  1.0
  H  H10  1  0.76927233  -0.39807260  -0.02004699  1.0
  C  C12  1  1.01751900  -0.13905312  -0.14626254  1.0
  H  H13  1  1.00150704  -0.19276991  -0.04637016  1.0
  H  H14  1  1.03630376  -0.31271583  -0.10966817  1.0
  C  C8  1  0.66834319  -0.57792425  -0.18547235  1.0
  C  C21  1  0.69468737  -0.64849138  -0.06639417  1.0
  H  H8  1  0.89945823  -0.52183306  -0.10520422  1.0
  C  C13  1  0.98376095  -0.20835741  -0.22496980  1.0
  C  C22  1  1.23329985  -0.06051964  -0.12822279  1.0
  C  C25  1  0.89083529  -0.04389524  -0.13545321  1.0
  C  C7  1  0.71774387  -0.70852023  -0.22048637  1.0
  H  H6  1  0.73531681  -0.50057256  -0.21142341  1.0
  H  H7  1  0.52418137  -0.57939839  -0.18899305  1.0
  H  H24  1  0.74415016  -0.70905745  -0.08603708  1.0
  H  H25  1  0.74888307  -0.61444378  -0.01512248  1.0
  H  H26  1  0.54660678  -0.67425984  -0.07099790  1.0
  C  C14  1  0.85657191  -0.18034959  -0.27465847  1.0
  C  C18  1  1.09835911  -0.30152726  -0.24476764  1.0
  C  C23  1  1.28982377  0.03374574  -0.18097462  1.0
  C  C24  1  1.27226365  0.02363023  -0.05191015  1.0
  H  H27  1  1.31805968  -0.12831037  -0.13137260  1.0
  N  N2  1  0.79241860  0.02938792  -0.12500095  1.0
  C  C1  1  0.64712036  -0.73476142  -0.30021143  1.0
  H  H4  1  0.64293814  -0.78019685  -0.19782478  1.0
  H  H5  1  0.85712522  -0.70286769  -0.21315986  1.0
  C  C15  1  0.83841902  -0.24596886  -0.34614974  1.0
  H  H15  1  0.77986383  -0.11351816  -0.26128182  1.0
  C  C17  1  1.08051682  -0.36322182  -0.31527427  1.0
  H  H17  1  1.17195892  -0.32407489  -0.20461020  1.0
  H  H28  1  1.20757329  0.09888545  -0.17308238  1.0
  H  H29  1  1.43078828  0.07902303  -0.17462933  1.0
  H  H30  1  1.26888013  -0.02007055  -0.23262024  1.0
  H  H31  1  1.20531917  0.08782607  -0.04950575  1.0
  H  H32  1  1.23318243  -0.03733802  -0.01614534  1.0
  H  H33  1  1.41798973  0.06454021  -0.04005352  1.0
  C  C2  1  0.77273947  -0.68597615  -0.34760824  1.0
  C  C6  1  0.45893115  -0.80776191  -0.32514137  1.0
  C  C16  1  0.95093811  -0.33600113  -0.36616185  1.0
  H  H16  1  0.74063563  -0.23014250  -0.38292384  1.0
  O  O4  1  1.18720424  -0.45286384  -0.34150019  1.0
  C  C3  1  0.71582049  -0.71621317  -0.42102468  1.0
  H  H1  1  0.90359187  -0.62759799  -0.32737982  1.0
  C  C5  1  0.40621522  -0.83649886  -0.39656410  1.0
  H  H3  1  0.36484954  -0.84286785  -0.28922421  1.0
  O  O3  1  0.94595778  -0.40488368  -0.43461198  1.0
  C  C27  1  1.32779956  -0.48358428  -0.29201484  1.0
  C  C4  1  0.53497446  -0.79449451  -0.44635054  1.0
  H  H2  1  0.81121635  -0.67926848  -0.45324793  1.0
  O  O2  1  0.22587067  -0.90717196  -0.42801994  1.0
  C  C26  1  0.79085588  -0.39704791  -0.48534015  1.0
  H  H37  1  1.41980624  -0.39781797  -0.27120426  1.0
  H  H38  1  1.25742543  -0.52390128  -0.25431669  1.0
  H  H39  1  1.39410186  -0.55024880  -0.31998947  1.0
  O  O1  1  0.46930340  -0.83782351  -0.51711679  1.0
  C  C20  1  0.08993185  -0.95878530  -0.38214764  1.0
  H  H34  1  0.83650851  -0.31145671  -0.48983890  1.0
  H  H35  1  0.78198570  -0.46301135  -0.53202093  1.0
  H  H36  1  0.66110873  -0.41612566  -0.46661109  1.0
  C  C19  1  0.61451364  -0.82844079  -0.56668824  1.0
  H  H21  1  0.08842307  -1.03703880  -0.38909581  1.0
  H  H22  1  0.12906253  -0.91449046  -0.33086792  1.0
  H  H23  1  -0.04330707  -0.94409871  -0.39782330  1.0
  H  H18  1  0.56151652  -0.89499903  -0.61349034  1.0
  H  H19  1  0.64009404  -0.73463529  -0.57709765  1.0
  H  H20  1  0.74981648  -0.83973145  -0.54728520  1.0
