# Generated using pymatgen and GALLOP
# GALLOP External Coords = 0.3160493,0.5404979,0.1144383,0.24594261,-0.2978588,-0.10459206,0.4282337,0.9272502,0.95583457,-0.20903148
# GALLOP Internal Coords = -1.2415385,2.9209685,-0.959281,-1.1960527,3.2185853,-4.17942,3.072682,-3.0345957,1.5691352,-0.0074729207,-0.18046616,-0.057311438,0.28152856
# Profile chisqd = 16.664
data_VerapamilHCl_0003_56.265_chisqd_252_refs_1.4_mins.cif
_symmetry_space_group_name_H-M   P-1
_cell_length_a   7.08991000
_cell_length_b   10.59464000
_cell_length_c   19.20684000
_cell_angle_alpha   100.10680000
_cell_angle_beta   93.73960000
_cell_angle_gamma   101.56100000
_symmetry_Int_Tables_number   2
_chemical_formula_structural   H39C27N2ClO4
_chemical_formula_sum   'H39 C27 N2 Cl1 O4'
_cell_volume   1383.96091643
_cell_formula_units_Z   2
_diffrn_radiation_wavelength   1.54056
_diffrn_radiation_type   'Cu K\a'
loop_
 _symmetry_equiv_pos_site_id
 _symmetry_equiv_pos_as_xyz
  1  'x, y, z'
  2  '-x, -y, -z'
loop_
 _atom_site_type_symbol
 _atom_site_label
 _atom_site_symmetry_multiplicity
 _atom_site_fract_x
 _atom_site_fract_y
 _atom_site_fract_z
 _atom_site_occupancy
  Cl  Cl1  1  0.31604931  0.54049790  0.11443830  1.0
  C  C10  1  0.24594261  -0.29785880  -0.10459206  1.0
  C  C9  1  0.19815332  -0.41869086  -0.06893682  1.0
  C  C11  1  0.46822184  -0.23854238  -0.09689656  1.0
  H  H11  1  0.20107192  -0.32875532  -0.16094269  1.0
  H  H12  1  0.17659187  -0.23162603  -0.08682527  1.0
  N  N1  1  0.25688997  -0.54164481  -0.10738719  1.0
  H  H9  1  0.05350026  -0.44739094  -0.06653437  1.0
  H  H10  1  0.26981920  -0.39808780  -0.02013548  1.0
  C  C12  1  0.51750195  -0.13897318  -0.14623423  1.0
  H  H13  1  0.50097090  -0.19261411  -0.04633559  1.0
  H  H14  1  0.53671604  -0.31244215  -0.10950222  1.0
  C  C8  1  0.16820541  -0.57818019  -0.18548486  1.0
  C  C21  1  0.19398433  -0.64873332  -0.06638678  1.0
  H  H8  1  0.39924455  -0.52240229  -0.10518765  1.0
  C  C13  1  0.48380980  -0.20828858  -0.22493950  1.0
  C  C22  1  0.73326379  -0.06040971  -0.12817767  1.0
  C  C25  1  0.39077735  -0.04383886  -0.13544585  1.0
  C  C7  1  0.21786964  -0.70865345  -0.22055405  1.0
  H  H6  1  0.23507187  -0.50072461  -0.21138680  1.0
  H  H7  1  0.02400775  -0.57977569  -0.18901615  1.0
  H  H24  1  0.24322751  -0.70942914  -0.08601062  1.0
  H  H25  1  0.24817084  -0.61472398  -0.01511153  1.0
  H  H26  1  0.04588553  -0.67425978  -0.07101009  1.0
  C  C14  1  0.35664055  -0.18030524  -0.27464429  1.0
  C  C18  1  0.59844834  -0.30144131  -0.24471724  1.0
  C  C23  1  0.78982717  0.03380442  -0.18095177  1.0
  C  C24  1  0.77213633  0.02379993  -0.05187980  1.0
  H  H27  1  0.81804544  -0.12818508  -0.13129030  1.0
  N  N2  1  0.29232776  0.02942634  -0.12500980  1.0
  C  C1  1  0.14718272  -0.73484904  -0.30027196  1.0
  H  H4  1  0.14323404  -0.78042543  -0.19791389  1.0
  H  H5  1  0.35728672  -0.70287061  -0.21324423  1.0
  C  C15  1  0.33854890  -0.24593285  -0.34613216  1.0
  H  H15  1  0.27990437  -0.11348546  -0.26128140  1.0
  C  C17  1  0.58066583  -0.36314428  -0.31522077  1.0
  H  H17  1  0.67203045  -0.32397291  -0.20455003  1.0
  H  H28  1  0.70755070  0.09893346  -0.17309512  1.0
  H  H29  1  0.93078589  0.07909736  -0.17459391  1.0
  H  H30  1  0.76894510  -0.02005211  -0.23258737  1.0
  H  H31  1  0.70517260  0.08798224  -0.04950815  1.0
  H  H32  1  0.73302776  -0.03713402  -0.01610095  1.0
  H  H33  1  0.91785234  0.06473148  -0.04000799  1.0
  C  C2  1  0.27277705  -0.68606687  -0.34767693  1.0
  C  C6  1  -0.04103939  -0.80780530  -0.32518750  1.0
  C  C16  1  0.45110768  -0.33594847  -0.36612460  1.0
  H  H16  1  0.24078104  -0.23012477  -0.38291815  1.0
  O  O4  1  0.68739671  -0.45277131  -0.34142774  1.0
  C  C3  1  0.21579635  -0.71626437  -0.42108896  1.0
  H  H1  1  0.40365779  -0.62771976  -0.32745722  1.0
  C  C5  1  -0.09381537  -0.83650434  -0.39660621  1.0
  H  H3  1  -0.13510145  -0.84290886  -0.28926399  1.0
  O  O3  1  0.44618809  -0.40483710  -0.43456966  1.0
  C  C27  1  0.82798874  -0.48345464  -0.29192615  1.0
  C  C4  1  0.03491408  -0.79450357  -0.44640243  1.0
  H  H2  1  0.31117606  -0.67932367  -0.45331851  1.0
  O  O2  1  -0.27419740  -0.90713203  -0.42804825  1.0
  C  C26  1  0.29120129  -0.39694190  -0.48532963  1.0
  H  H37  1  0.91996717  -0.39767542  -0.27111745  1.0
  H  H38  1  0.75760680  -0.52376807  -0.25422850  1.0
  H  H39  1  0.89432603  -0.55011237  -0.31988794  1.0
  O  O1  1  -0.03082179  -0.83779371  -0.51716542  1.0
  C  C20  1  -0.41012257  -0.95872319  -0.38216555  1.0
  H  H34  1  0.33694455  -0.31135756  -0.48982200  1.0
  H  H35  1  0.28235388  -0.46290973  -0.53200722  1.0
  H  H36  1  0.16140938  -0.41597328  -0.46662882  1.0
  C  C19  1  0.11436833  -0.82855737  -0.56674910  1.0
  H  H21  1  -0.41167581  -1.03698313  -0.38912135  1.0
  H  H22  1  -0.37094253  -0.91444314  -0.33088610  1.0
  H  H23  1  -0.54334998  -0.94399774  -0.39782438  1.0
  H  H18  1  0.06125160  -0.89509141  -0.61354929  1.0
  H  H19  1  0.14013924  -0.73475122  -0.57715857  1.0
  H  H20  1  0.24960436  -0.83997881  -0.54735708  1.0
