# Generated using pymatgen and GALLOP
# GALLOP External Coords = -0.18400818,-0.4595526,0.11436616,-0.2543529,-0.29718366,-0.10420984,0.39990187,0.8829628,0.90585256,-0.20050924
# GALLOP Internal Coords = -1.2264065,2.916228,-0.9675321,-1.2041322,3.227047,2.103653,3.0736575,-3.0328605,1.5657218,-0.006906785,-0.18248002,-0.05724802,0.27938393
# Profile chisqd = 16.697
data_VerapamilHCl_0007_56.243_chisqd_252_refs_3.3_mins.cif
_symmetry_space_group_name_H-M   P-1
_cell_length_a   7.08991000
_cell_length_b   10.59464000
_cell_length_c   19.20684000
_cell_angle_alpha   100.10680000
_cell_angle_beta   93.73960000
_cell_angle_gamma   101.56100000
_symmetry_Int_Tables_number   2
_chemical_formula_structural   H39C27N2ClO4
_chemical_formula_sum   'H39 C27 N2 Cl1 O4'
_cell_volume   1383.96091643
_cell_formula_units_Z   2
_diffrn_radiation_wavelength   1.54056
_diffrn_radiation_type   'Cu K\a'
loop_
 _symmetry_equiv_pos_site_id
 _symmetry_equiv_pos_as_xyz
  1  'x, y, z'
  2  '-x, -y, -z'
loop_
 _atom_site_type_symbol
 _atom_site_label
 _atom_site_symmetry_multiplicity
 _atom_site_fract_x
 _atom_site_fract_y
 _atom_site_fract_z
 _atom_site_occupancy
  Cl  Cl1  1  -0.18400818  -0.45955259  0.11436616  1.0
  C  C10  1  -0.25435290  -0.29718366  -0.10420984  1.0
  C  C9  1  -0.30246317  -0.41845292  -0.06891729  1.0
  C  C11  1  -0.03187114  -0.23876892  -0.09698810  1.0
  H  H11  1  -0.30034918  -0.32739598  -0.16050927  1.0
  H  H12  1  -0.32271436  -0.23066850  -0.08596074  1.0
  N  N1  1  -0.24280402  -0.54099429  -0.10743725  1.0
  H  H9  1  -0.44721895  -0.44745958  -0.06685054  1.0
  H  H10  1  -0.23153174  -0.39813197  -0.01999949  1.0
  C  C12  1  0.01742315  -0.13917613  -0.14631189  1.0
  H  H13  1  0.00193837  -0.19300097  -0.04643373  1.0
  H  H14  1  0.03570324  -0.31306469  -0.10987826  1.0
  C  C8  1  -0.33166888  -0.57769966  -0.18551329  1.0
  C  C21  1  -0.30464202  -0.64827478  -0.06645717  1.0
  H  H8  1  -0.10045487  -0.52123827  -0.10528371  1.0
  C  C13  1  -0.01634769  -0.20845538  -0.22502345  1.0
  C  C22  1  0.23321405  -0.06066342  -0.12826884  1.0
  C  C25  1  -0.10923609  -0.04400420  -0.13548972  1.0
  C  C7  1  -0.28250864  -0.70841086  -0.22047111  1.0
  H  H6  1  -0.26461941  -0.50045168  -0.21151899  1.0
  H  H7  1  -0.47579932  -0.57906842  -0.18901752  1.0
  H  H24  1  -0.25492555  -0.70868957  -0.08612299  1.0
  H  H25  1  -0.25042769  -0.61417967  -0.01519062  1.0
  H  H26  1  -0.45269981  -0.67432594  -0.07103473  1.0
  C  C14  1  -0.14353508  -0.18042344  -0.27470365  1.0
  C  C18  1  0.09823686  -0.30162817  -0.24483451  1.0
  C  C23  1  0.28972468  0.03367454  -0.18098558  1.0
  C  C24  1  0.27222005  0.02340612  -0.05193638  1.0
  H  H27  1  0.31796113  -0.12846386  -0.13145408  1.0
  N  N2  1  -0.20763394  0.02928913  -0.12502760  1.0
  C  C1  1  -0.35302705  -0.73468721  -0.30020660  1.0
  H  H4  1  -0.35749647  -0.77999902  -0.19779597  1.0
  H  H5  1  -0.14316399  -0.70288420  -0.21311811  1.0
  C  C15  1  -0.16170008  -0.24602063  -0.34619951  1.0
  H  H15  1  -0.22023356  -0.11358984  -0.26131761  1.0
  C  C17  1  0.08038297  -0.36330086  -0.31534535  1.0
  H  H17  1  0.17183590  -0.32419401  -0.20468304  1.0
  H  H28  1  0.20748851  0.09881788  -0.17305970  1.0
  H  H29  1  0.43069258  0.07894385  -0.17463987  1.0
  H  H30  1  0.26875272  -0.02008724  -0.23264407  1.0
  H  H31  1  0.20528686  0.08761120  -0.04949991  1.0
  H  H32  1  0.23314828  -0.03761086  -0.01619414  1.0
  H  H33  1  0.41795143  0.06430086  -0.04008211  1.0
  C  C2  1  -0.22733769  -0.68591642  -0.34758645  1.0
  C  C6  1  -0.54119098  -0.80770504  -0.32516259  1.0
  C  C16  1  -0.04919426  -0.33605555  -0.36622438  1.0
  H  H16  1  -0.25948268  -0.23017651  -0.38296777  1.0
  O  O4  1  0.18705684  -0.45294309  -0.34158364  1.0
  C  C3  1  -0.28415921  -0.71618497  -0.42100972  1.0
  H  H1  1  -0.09650701  -0.62752557  -0.32734132  1.0
  C  C5  1  -0.59381199  -0.83647251  -0.39659151  1.0
  H  H3  1  -0.63532573  -0.84280014  -0.28925836  1.0
  O  O3  1  -0.05418701  -0.40491784  -0.43467996  1.0
  C  C27  1  0.32759109  -0.48373049  -0.29210153  1.0
  C  C4  1  -0.46497887  -0.79448301  -0.44635913  1.0
  H  H2  1  -0.18871516  -0.67924982  -0.45322007  1.0
  O  O2  1  -0.77412200  -0.90716529  -0.42807224  1.0
  C  C26  1  -0.20941423  -0.39717552  -0.48538166  1.0
  H  H37  1  0.41961047  -0.39798290  -0.27126443  1.0
  H  H38  1  0.25716791  -0.52407980  -0.25442314  1.0
  H  H39  1  0.39389142  -0.55038571  -0.32008538  1.0
  O  O1  1  -0.53055626  -0.83784211  -0.51713157  1.0
  C  C20  1  -0.91014338  -0.95874226  -0.38221681  1.0
  H  H34  1  -0.16389541  -0.31157041  -0.48988304  1.0
  H  H35  1  -0.21826427  -0.46312511  -0.53206635  1.0
  H  H36  1  -0.33911997  -0.41633588  -0.46663040  1.0
  C  C19  1  -0.38529277  -0.82835543  -0.56667930  1.0
  H  H21  1  -0.91164804  -1.03699458  -0.38914287  1.0
  H  H22  1  -0.87108707  -0.91441274  -0.33093861  1.0
  H  H23  1  -1.04336274  -0.94407010  -0.39793006  1.0
  H  H18  1  -0.43817523  -0.89493215  -0.61348486  1.0
  H  H19  1  -0.35983554  -0.73455107  -0.57708979  1.0
  H  H20  1  -0.24995427  -0.83955097  -0.54725468  1.0
