# Generated using pymatgen and GALLOP
# GALLOP External Coords = 0.8160386,-0.45951793,0.11439535,-0.25428712,-0.29723978,-0.104244694,0.42641118,0.9385468,0.96365064,-0.21292458
# GALLOP Internal Coords = -1.2287359,2.916909,-0.96630913,-1.2028422,-3.0574698,2.1036153,3.0734072,-3.0330365,1.5664245,-0.0072224466,-0.18219204,-0.057110153,0.2797193
# Profile chisqd = 16.705
data_VerapamilHCl_0010_56.244_chisqd_252_refs_4.7_mins.cif
_symmetry_space_group_name_H-M   P-1
_cell_length_a   7.08991000
_cell_length_b   10.59464000
_cell_length_c   19.20684000
_cell_angle_alpha   100.10680000
_cell_angle_beta   93.73960000
_cell_angle_gamma   101.56100000
_symmetry_Int_Tables_number   2
_chemical_formula_structural   H39C27N2ClO4
_chemical_formula_sum   'H39 C27 N2 Cl1 O4'
_cell_volume   1383.96091643
_cell_formula_units_Z   2
_diffrn_radiation_wavelength   1.54056
_diffrn_radiation_type   'Cu K\a'
loop_
 _symmetry_equiv_pos_site_id
 _symmetry_equiv_pos_as_xyz
  1  'x, y, z'
  2  '-x, -y, -z'
loop_
 _atom_site_type_symbol
 _atom_site_label
 _atom_site_symmetry_multiplicity
 _atom_site_fract_x
 _atom_site_fract_y
 _atom_site_fract_z
 _atom_site_occupancy
  Cl  Cl1  1  0.81603861  -0.45951793  0.11439535  1.0
  C  C10  1  -0.25428712  -0.29723978  -0.10424469  1.0
  C  C9  1  -0.30233413  -0.41843680  -0.06889147  1.0
  C  C11  1  -0.03183806  -0.23867841  -0.09695170  1.0
  H  H11  1  -0.30011192  -0.32756537  -0.16055205  1.0
  H  H12  1  -0.32280740  -0.23076966  -0.08607188  1.0
  N  N1  1  -0.24280658  -0.54104078  -0.10739705  1.0
  H  H9  1  -0.44707316  -0.44740140  -0.06677188  1.0
  H  H10  1  -0.23128724  -0.39806426  -0.01999158  1.0
  C  C12  1  0.01744360  -0.13910054  -0.14628451  1.0
  H  H13  1  0.00180629  -0.19287562  -0.04639772  1.0
  H  H14  1  0.03588563  -0.31291118  -0.10979325  1.0
  C  C8  1  -0.33165482  -0.57773507  -0.18547510  1.0
  C  C21  1  -0.30478737  -0.64828551  -0.06640756  1.0
  H  H8  1  -0.10045677  -0.52135682  -0.10523926  1.0
  C  C13  1  -0.01632093  -0.20839927  -0.22499275  1.0
  C  C22  1  0.23322877  -0.06057562  -0.12824464  1.0
  C  C25  1  -0.10922949  -0.04393625  -0.13547179  1.0
  C  C7  1  -0.28240007  -0.70840621  -0.22044653  1.0
  H  H6  1  -0.26465130  -0.50045669  -0.21146920  1.0
  H  H7  1  -0.47579873  -0.57914913  -0.18898131  1.0
  H  H24  1  -0.25513846  -0.70874214  -0.08606540  1.0
  H  H25  1  -0.25057149  -0.61419415  -0.01514090  1.0
  H  H26  1  -0.45285097  -0.67426336  -0.07098903  1.0
  C  C14  1  -0.14351970  -0.18039104  -0.27467787  1.0
  C  C18  1  0.09828177  -0.30156410  -0.24479549  1.0
  C  C23  1  0.28974324  0.03372118  -0.18098158  1.0
  C  C24  1  0.27221394  0.02353948  -0.05192343  1.0
  H  H27  1  0.31798357  -0.12837039  -0.13141049  1.0
  N  N2  1  -0.20763800  0.02935168  -0.12501694  1.0
  C  C1  1  -0.35294029  -0.73467803  -0.30017996  1.0
  H  H4  1  -0.35732758  -0.78002369  -0.19777584  1.0
  H  H5  1  -0.14304256  -0.70283246  -0.21309859  1.0
  C  C15  1  -0.16167814  -0.24600486  -0.34617034  1.0
  H  H15  1  -0.22023110  -0.11356296  -0.26129776  1.0
  C  C17  1  0.08043376  -0.36325336  -0.31530324  1.0
  H  H17  1  0.17188933  -0.32411292  -0.20464033  1.0
  H  H28  1  0.20749879  0.09886223  -0.17307407  1.0
  H  H29  1  0.43070900  0.07899529  -0.17463699  1.0
  H  H30  1  0.26878524  -0.02007157  -0.23263280  1.0
  H  H31  1  0.20527390  0.08773917  -0.04950457  1.0
  H  H32  1  0.23313937  -0.03744987  -0.01616818  1.0
  H  H33  1  0.41794252  0.06444317  -0.04006871  1.0
  C  C2  1  -0.22725682  -0.68592083  -0.34756508  1.0
  C  C6  1  -0.54111820  -0.80767810  -0.32512885  1.0
  C  C16  1  -0.04915482  -0.33603218  -0.36618721  1.0
  H  H16  1  -0.25946835  -0.23017827  -0.38294184  1.0
  O  O4  1  0.18712446  -0.45289010  -0.34153378  1.0
  C  C3  1  -0.28410006  -0.71618617  -0.42098683  1.0
  H  H1  1  -0.09641406  -0.62754190  -0.32732478  1.0
  C  C5  1  -0.59376025  -0.83644277  -0.39655644  1.0
  H  H3  1  -0.63524818  -0.84276295  -0.28922069  1.0
  O  O3  1  -0.05413991  -0.40490913  -0.43463892  1.0
  C  C27  1  0.32771212  -0.48362324  -0.29205060  1.0
  C  C4  1  -0.46493530  -0.79446757  -0.44632953  1.0
  H  H2  1  -0.18865961  -0.67926133  -0.45320117  1.0
  O  O2  1  -0.77408564  -0.90711886  -0.42803043  1.0
  C  C26  1  -0.20934460  -0.39716256  -0.48534894  1.0
  H  H37  1  0.41971713  -0.39785954  -0.27123338  1.0
  H  H38  1  0.25733125  -0.52395147  -0.25435719  1.0
  H  H39  1  0.39401805  -0.55028164  -0.32002854  1.0
  O  O1  1  -0.53053623  -0.83782291  -0.51710021  1.0
  C  C20  1  -0.91011035  -0.95866656  -0.38216829  1.0
  H  H34  1  -0.16380528  -0.31156209  -0.48985440  1.0
  H  H35  1  -0.21819371  -0.46312177  -0.53202993  1.0
  H  H36  1  -0.33905852  -0.41630656  -0.46660209  1.0
  C  C19  1  -0.38528097  -0.82839268  -0.56665289  1.0
  H  H21  1  -0.91163820  -1.03692198  -0.38909006  1.0
  H  H22  1  -0.87103754  -0.91432941  -0.33089203  1.0
  H  H23  1  -1.04332113  -0.94397891  -0.39788014  1.0
  H  H18  1  -0.43820456  -0.89496696  -0.61345583  1.0
  H  H19  1  -0.35976082  -0.73459089  -0.57706738  1.0
  H  H20  1  -0.24996418  -0.83962935  -0.54723096  1.0
