# Generated using pymatgen and GALLOP
# GALLOP External Coords = -0.18398817,0.0404639,-0.38558185,-0.25433186,0.20287122,0.39583912,0.39727706,0.8783818,0.9009096,-0.1996036
# GALLOP Internal Coords = -1.2253343,2.91604,-0.9679622,-1.2046665,-3.0553765,2.1035092,3.0736856,-3.0328903,1.5654329,-0.007269691,-0.18272693,-0.05707854,0.27908343
# Profile chisqd = 16.716
data_VerapamilHCl_0006_56.244_chisqd_252_refs_2.8_mins.cif
_symmetry_space_group_name_H-M   P-1
_cell_length_a   7.08991000
_cell_length_b   10.59464000
_cell_length_c   19.20684000
_cell_angle_alpha   100.10680000
_cell_angle_beta   93.73960000
_cell_angle_gamma   101.56100000
_symmetry_Int_Tables_number   2
_chemical_formula_structural   H39C27N2ClO4
_chemical_formula_sum   'H39 C27 N2 Cl1 O4'
_cell_volume   1383.96091643
_cell_formula_units_Z   2
_diffrn_radiation_wavelength   1.54056
_diffrn_radiation_type   'Cu K\a'
loop_
 _symmetry_equiv_pos_site_id
 _symmetry_equiv_pos_as_xyz
  1  'x, y, z'
  2  '-x, -y, -z'
loop_
 _atom_site_type_symbol
 _atom_site_label
 _atom_site_symmetry_multiplicity
 _atom_site_fract_x
 _atom_site_fract_y
 _atom_site_fract_z
 _atom_site_occupancy
  Cl  Cl1  1  -0.18398817  0.04046390  -0.38558185  1.0
  C  C10  1  -0.25433186  0.20287122  0.39583912  1.0
  C  C9  1  -0.30244935  0.08157282  0.43110809  1.0
  C  C11  1  -0.03183882  0.26122856  0.40302286  1.0
  H  H11  1  -0.30041447  0.17270428  0.33954418  1.0
  H  H12  1  -0.32262599  0.26940373  0.41412306  1.0
  N  N1  1  -0.24272057  -0.04093738  0.39258307  1.0
  H  H9  1  -0.44721034  0.05254072  0.43315378  1.0
  H  H10  1  -0.23156345  0.10187761  0.48003307  1.0
  C  C12  1  0.01743665  0.36083645  0.35370618  1.0
  H  H13  1  0.00205401  0.30697572  0.45357791  1.0
  H  H14  1  0.03567350  0.18690902  0.39010480  1.0
  C  C8  1  -0.33158207  -0.07764779  0.31450665  1.0
  C  C21  1  -0.30449632  -0.14823575  0.43355751  1.0
  H  H8  1  -0.10037130  -0.02114561  0.39473748  1.0
  C  C13  1  -0.01636033  0.29157546  0.27499151  1.0
  C  C22  1  0.23323029  0.43934596  0.37174350  1.0
  C  C25  1  -0.10921851  0.45600873  0.36454439  1.0
  C  C7  1  -0.28248307  -0.20838608  0.27955967  1.0
  H  H6  1  -0.26449323  -0.00041994  0.28849509  1.0
  H  H7  1  -0.47570306  -0.07898493  0.31099999  1.0
  H  H24  1  -0.25474405  -0.20862971  0.41388923  1.0
  H  H25  1  -0.25029024  -0.11413901  0.48482478  1.0
  H  H26  1  -0.45255142  -0.17432328  0.42897886  1.0
  C  C14  1  -0.14358139  0.31960991  0.22532406  1.0
  C  C18  1  0.09823596  0.19841768  0.25516325  1.0
  C  C23  1  0.28971907  0.53370267  0.31903434  1.0
  C  C24  1  0.27226278  0.52339518  0.44808090  1.0
  H  H27  1  0.31797633  0.37154421  0.36854565  1.0
  N  N2  1  -0.20761248  0.52930170  0.37501886  1.0
  C  C1  1  -0.35299945  -0.23467402  0.19982362  1.0
  H  H4  1  -0.35750306  -0.27995276  0.30224112  1.0
  H  H5  1  -0.14314580  -0.20288767  0.28691354  1.0
  C  C15  1  -0.16176936  0.25403035  0.15382424  1.0
  H  H15  1  -0.22028863  0.38643342  0.23872200  1.0
  C  C17  1  0.08035874  0.13676238  0.18464878  1.0
  H  H17  1  0.17186180  0.17584731  0.29530656  1.0
  H  H28  1  0.20748568  0.59884572  0.32697225  1.0
  H  H29  1  0.43068692  0.57897133  0.32537577  1.0
  H  H30  1  0.26872906  0.47995472  0.26737246  1.0
  H  H31  1  0.20533022  0.58760166  0.45052850  1.0
  H  H32  1  0.23320577  0.46236563  0.48381838  1.0
  H  H33  1  0.41799608  0.56428748  0.45993003  1.0
  C  C2  1  -0.22730629  -0.18591549  0.15244171  1.0
  C  C6  1  -0.54116529  -0.30769002  0.17486922  1.0
  C  C16  1  -0.04925263  0.16401035  0.13378263  1.0
  H  H16  1  -0.25957581  0.26987606  0.11706525  1.0
  O  O4  1  0.18704012  0.04713622  0.15839431  1.0
  C  C3  1  -0.28412631  -0.21619482  0.07901835  1.0
  H  H1  1  -0.09647390  -0.12752543  0.17268538  1.0
  C  C5  1  -0.59378481  -0.33646804  0.10344020  1.0
  H  H3  1  -0.63530290  -0.34277582  0.21077490  1.0
  O  O3  1  -0.05426590  0.09516602  0.06532174  1.0
  C  C27  1  0.32765606  0.01638143  0.20785759  1.0
  C  C4  1  -0.46494830  -0.29449129  0.05367091  1.0
  H  H2  1  -0.18867955  -0.17926832  0.04680651  1.0
  O  O2  1  -0.77409649  -0.40716034  0.07196087  1.0
  C  C26  1  -0.20954973  0.10288362  0.01463708  1.0
  H  H37  1  0.41966555  0.10214086  0.22867955  1.0
  H  H38  1  0.25729999  -0.02396758  0.24554978  1.0
  H  H39  1  0.39395049  -0.05026545  0.17986333  1.0
  O  O1  1  -0.53052503  -0.33786041  -0.01710102  1.0
  C  C20  1  -0.91013229  -0.45870709  0.11781970  1.0
  H  H34  1  -0.16408181  0.18849601  0.01013833  1.0
  H  H35  1  -0.21840312  0.03694595  -0.03205231  1.0
  H  H36  1  -0.33923462  0.08368985  0.03340024  1.0
  C  C19  1  -0.38526690  -0.32835156  -0.06665003  1.0
  H  H21  1  -0.91164720  -0.53696048  0.11090383  1.0
  H  H22  1  -0.87108016  -0.41435915  0.16909531  1.0
  H  H23  1  -1.04334474  -0.44403285  0.10209882  1.0
  H  H18  1  -0.43813515  -0.39493436  -0.11345467  1.0
  H  H19  1  -0.35984537  -0.23454832  -0.07706195  1.0
  H  H20  1  -0.24991429  -0.33952373  -0.04722589  1.0
