# Generated using pymatgen and GALLOP
# GALLOP External Coords = -0.31948736,-0.042765,-0.11722294,0.27059582,0.16984585,-0.12321373,0.71140426,0.72571117,0.924309,-0.04730222
# GALLOP Internal Coords = -1.9085566,3.1052737,-0.85332716,-0.7479022,2.6356719,-4.1962037,-3.2915237,3.2986653,1.9339285,-0.07748059,-0.15124664,-0.0969904,0.30837294
# Profile chisqd = 27.88
data_VerapamilHCl_0002_98.965_chisqd_252_refs_0.9_mins.cif
_symmetry_space_group_name_H-M   P-1
_cell_length_a   7.08991000
_cell_length_b   10.59464000
_cell_length_c   19.20684000
_cell_angle_alpha   100.10680000
_cell_angle_beta   93.73960000
_cell_angle_gamma   101.56100000
_symmetry_Int_Tables_number   2
_chemical_formula_structural   H39C27N2ClO4
_chemical_formula_sum   'H39 C27 N2 Cl1 O4'
_cell_volume   1383.96091643
_cell_formula_units_Z   2
_diffrn_radiation_wavelength   1.54056
_diffrn_radiation_type   'Cu K\a'
loop_
 _symmetry_equiv_pos_site_id
 _symmetry_equiv_pos_as_xyz
  1  'x, y, z'
  2  '-x, -y, -z'
loop_
 _atom_site_type_symbol
 _atom_site_label
 _atom_site_symmetry_multiplicity
 _atom_site_fract_x
 _atom_site_fract_y
 _atom_site_fract_z
 _atom_site_occupancy
  Cl  Cl1  1  -0.31948736  -0.04276500  -0.11722294  1.0
  C  C10  1  0.27059582  0.16984585  -0.12321373  1.0
  C  C9  1  0.21770820  0.06754077  -0.07547850  1.0
  C  C11  1  0.46323499  0.27105254  -0.09323295  1.0
  H  H11  1  0.29439446  0.11931425  -0.17480394  1.0
  H  H12  1  0.16735443  0.21431412  -0.13070868  1.0
  N  N1  1  0.23868699  -0.07106262  -0.10724222  1.0
  H  H9  1  0.07712246  0.05631499  -0.06524646  1.0
  H  H10  1  0.30622044  0.09440885  -0.03004897  1.0
  C  C12  1  0.51742887  0.36918661  -0.14300688  1.0
  H  H13  1  0.43675292  0.31871870  -0.04661573  1.0
  H  H14  1  0.56850111  0.22132263  -0.08845860  1.0
  C  C8  1  0.13917950  -0.11473298  -0.18383494  1.0
  C  C21  1  0.15549110  -0.15947989  -0.05843968  1.0
  H  H8  1  0.37813926  -0.06951763  -0.10709228  1.0
  C  C13  1  0.48532078  0.29856947  -0.22148010  1.0
  C  C22  1  0.73405331  0.44572070  -0.12423748  1.0
  C  C25  1  0.39331618  0.46614265  -0.13359827  1.0
  C  C7  1  0.24422826  -0.21274176  -0.22620824  1.0
  H  H6  1  0.15474010  -0.02782841  -0.20684892  1.0
  H  H7  1  -0.00519380  -0.15017873  -0.18403158  1.0
  H  H24  1  0.18490687  -0.23062465  -0.07489898  1.0
  H  H25  1  0.21955813  -0.12035546  -0.00875568  1.0
  H  H26  1  0.00881687  -0.16710839  -0.06062537  1.0
  C  C14  1  0.35943303  0.32575297  -0.27192354  1.0
  C  C18  1  0.60006356  0.20505165  -0.24022052  1.0
  C  C23  1  0.80058813  0.52959472  -0.18084531  1.0
  C  C24  1  0.76826721  0.53973591  -0.05072714  1.0
  H  H27  1  0.81573749  0.37696871  -0.12230411  1.0
  N  N2  1  0.29678625  0.54086387  -0.12422834  1.0
  C  C1  1  0.16391620  -0.23736989  -0.30491981  1.0
  H  H4  1  0.21096440  -0.29774567  -0.20765653  1.0
  H  H5  1  0.38380209  -0.17709085  -0.22000554  1.0
  C  C15  1  0.34277189  0.25893128  -0.34313390  1.0
  H  H15  1  0.28264329  0.39281240  -0.25928399  1.0
  C  C17  1  0.58370471  0.14216615  -0.31046981  1.0
  H  H17  1  0.67260313  0.18320352  -0.19957203  1.0
  H  H28  1  0.72075462  0.59641874  -0.17781952  1.0
  H  H29  1  0.94243121  0.57281590  -0.17376453  1.0
  H  H30  1  0.78298414  0.46896556  -0.23063654  1.0
  H  H31  1  0.70425212  0.60452741  -0.05286403  1.0
  H  H32  1  0.72253710  0.48578405  -0.01250902  1.0
  H  H33  1  0.91404068  0.57941711  -0.03778138  1.0
  C  C2  1  0.28344476  -0.18940109  -0.35425499  1.0
  C  C6  1  -0.02699098  -0.30811119  -0.32702354  1.0
  C  C16  1  0.45545298  0.16854432  -0.36211792  1.0
  H  H16  1  0.24593048  0.27415973  -0.38044909  1.0
  O  O4  1  0.69070733  0.05205990  -0.33570066  1.0
  C  C3  1  0.21743684  -0.21828377  -0.42694429  1.0
  H  H1  1  0.41666961  -0.13258764  -0.33592045  1.0
  C  C5  1  -0.08855996  -0.33556041  -0.39778224  1.0
  H  H3  1  -0.11643574  -0.34260318  -0.28964132  1.0
  O  O3  1  0.45188016  0.09850609  -0.43020886  1.0
  C  C27  1  0.83897948  0.02862938  -0.28647500  1.0
  C  C4  1  0.03367616  -0.29441923  -0.44962886  1.0
  H  H2  1  0.30867121  -0.18200040  -0.46063745  1.0
  O  O2  1  -0.27245489  -0.40399036  -0.42654234  1.0
  C  C26  1  0.30135038  0.10858271  -0.48217341  1.0
  H  H37  1  0.93010151  0.11614460  -0.26904449  1.0
  H  H38  1  0.77518320  -0.00748467  -0.24630795  1.0
  H  H39  1  0.90441930  -0.03944089  -0.31364757  1.0
  O  O1  1  -0.04089940  -0.33637753  -0.51962107  1.0
  C  C20  1  -0.40003070  -0.45886746  -0.37901101  1.0
  H  H34  1  0.35111651  0.19360425  -0.48674795  1.0
  H  H35  1  0.29257187  0.04185574  -0.52855480  1.0
  H  H36  1  0.17008126  0.09213537  -0.46438617  1.0
  C  C19  1  0.09765129  -0.33153650  -0.57175547  1.0
  H  H21  1  -0.40255192  -0.53722048  -0.38812128  1.0
  H  H22  1  -0.35310504  -0.41801068  -0.32775509  1.0
  H  H23  1  -0.53475976  -0.44255069  -0.39082408  1.0
  H  H18  1  0.03677242  -0.39721236  -0.61805922  1.0
  H  H19  1  0.12705074  -0.23776910  -0.58218664  1.0
  H  H20  1  0.23247077  -0.34697428  -0.55469310  1.0
