# Generated using pymatgen and GALLOP
# GALLOP External Coords = -0.18387952,0.04046718,-0.38560885,-0.25437826,0.20289476,0.3958499,0.42699444,0.9448557,0.96885884,-0.21473587
# GALLOP Internal Coords = -1.2247171,2.9157693,-0.9684865,-1.2049726,-3.0553043,2.1035357,-3.2094998,-3.0325809,1.5654119,-0.00710424,-0.18297094,-0.05709775,0.27916145
# Profile chisqd = 16.723
data_VerapamilHCl_0009_56.244_chisqd_252_refs_4.2_mins.cif
_symmetry_space_group_name_H-M   P-1
_cell_length_a   7.08991000
_cell_length_b   10.59464000
_cell_length_c   19.20684000
_cell_angle_alpha   100.10680000
_cell_angle_beta   93.73960000
_cell_angle_gamma   101.56100000
_symmetry_Int_Tables_number   2
_chemical_formula_structural   H39C27N2ClO4
_chemical_formula_sum   'H39 C27 N2 Cl1 O4'
_cell_volume   1383.96091643
_cell_formula_units_Z   2
_diffrn_radiation_wavelength   1.54056
_diffrn_radiation_type   'Cu K\a'
loop_
 _symmetry_equiv_pos_site_id
 _symmetry_equiv_pos_as_xyz
  1  'x, y, z'
  2  '-x, -y, -z'
loop_
 _atom_site_type_symbol
 _atom_site_label
 _atom_site_symmetry_multiplicity
 _atom_site_fract_x
 _atom_site_fract_y
 _atom_site_fract_z
 _atom_site_occupancy
  Cl  Cl1  1  -0.18387952  0.04046718  -0.38560885  1.0
  C  C10  1  -0.25437826  0.20289476  0.39584991  1.0
  C  C9  1  -0.30252007  0.08157597  0.43110141  1.0
  C  C11  1  -0.03187583  0.26121220  0.40301836  1.0
  H  H11  1  -0.30049995  0.17275952  0.33955660  1.0
  H  H12  1  -0.32263106  0.26943928  0.41415313  1.0
  N  N1  1  -0.24275455  -0.04091746  0.39257333  1.0
  H  H9  1  -0.44728664  0.05253333  0.43313071  1.0
  H  H10  1  -0.23167036  0.10186544  0.48003203  1.0
  C  C12  1  0.01741362  0.36081624  0.35370040  1.0
  H  H13  1  0.00205329  0.30695596  0.45357275  1.0
  H  H14  1  0.03559765  0.18687479  0.39009264  1.0
  C  C8  1  -0.33164513  -0.07764466  0.31450039  1.0
  C  C21  1  -0.30446360  -0.14821883  0.43355218  1.0
  H  H8  1  -0.10040653  -0.02110119  0.39472026  1.0
  C  C13  1  -0.01638034  0.29155177  0.27498633  1.0
  C  C22  1  0.23321041  0.43931910  0.37173936  1.0
  C  C25  1  -0.10923313  0.45599437  0.36453521  1.0
  C  C7  1  -0.28251711  -0.20837273  0.27955252  1.0
  H  H6  1  -0.26459363  -0.00041412  0.28848356  1.0
  H  H7  1  -0.47577196  -0.07900132  0.31100088  1.0
  H  H24  1  -0.25469264  -0.20860083  0.41388130  1.0
  H  H25  1  -0.25024307  -0.11411239  0.48481733  1.0
  H  H26  1  -0.45251614  -0.17433156  0.42898124  1.0
  C  C14  1  -0.14358896  0.31959057  0.22531617  1.0
  C  C18  1  0.09820536  0.19838566  0.25516170  1.0
  C  C23  1  0.28971314  0.53367138  0.31902909  1.0
  C  C24  1  0.27224153  0.52337158  0.44807598  1.0
  H  H27  1  0.31795007  0.37151358  0.36854392  1.0
  N  N2  1  -0.20762086  0.52929217  0.37500703  1.0
  C  C1  1  -0.35300809  -0.23465349  0.19981444  1.0
  H  H4  1  -0.35753700  -0.27994806  0.30222815  1.0
  H  H5  1  -0.14317852  -0.20286481  0.28691229  1.0
  C  C15  1  -0.16177472  0.25400716  0.15381709  1.0
  H  H15  1  -0.22028859  0.38641971  0.23871160  1.0
  C  C17  1  0.08033067  0.13672662  0.18464795  1.0
  H  H17  1  0.17182153  0.17581335  0.29530674  1.0
  H  H28  1  0.20748544  0.59881842  0.32696474  1.0
  H  H29  1  0.43068308  0.57893538  0.32537168  1.0
  H  H30  1  0.26872432  0.47992104  0.26736781  1.0
  H  H31  1  0.20531496  0.58758110  0.45052147  1.0
  H  H32  1  0.23317540  0.46234500  0.48381412  1.0
  H  H33  1  0.41797596  0.56425929  0.45992640  1.0
  C  C2  1  -0.22730431  -0.18587621  0.15244053  1.0
  C  C6  1  -0.54116142  -0.30768162  0.17485030  1.0
  C  C16  1  -0.04926811  0.16397896  0.13377902  1.0
  H  H16  1  -0.25957257  0.26985621  0.11705607  1.0
  O  O4  1  0.18700290  0.04709220  0.15839688  1.0
  C  C3  1  -0.28409970  -0.21614812  0.07901549  1.0
  H  H1  1  -0.09648272  -0.12747832  0.17269117  1.0
  C  C5  1  -0.59375703  -0.33645219  0.10341978  1.0
  H  H3  1  -0.63530731  -0.34278148  0.21075003  1.0
  O  O3  1  -0.05428018  0.09513022  0.06531918  1.0
  C  C27  1  0.32758433  0.01631682  0.20786536  1.0
  C  C4  1  -0.46490794  -0.29445589  0.05365843  1.0
  H  H2  1  -0.18864599  -0.17920800  0.04680961  1.0
  O  O2  1  -0.77405429  -0.40715486  0.07193130  1.0
  C  C26  1  -0.20957990  0.10282852  0.01463574  1.0
  H  H37  1  0.41960192  0.10206912  0.22869471  1.0
  H  H38  1  0.25720066  -0.02403420  0.24555129  1.0
  H  H39  1  0.39387655  -0.05033381  0.17987312  1.0
  O  O1  1  -0.53045905  -0.33781868  -0.01711601  1.0
  C  C20  1  -0.91009903  -0.45872295  0.11778149  1.0
  H  H34  1  -0.16413076  0.18844126  0.01013383  1.0
  H  H35  1  -0.21842837  0.03688809  -0.03205231  1.0
  H  H36  1  -0.33925989  0.08362556  0.03340155  1.0
  C  C19  1  -0.38518089  -0.32829762  -0.06665704  1.0
  H  H21  1  -0.91159856  -0.53697437  0.11086255  1.0
  H  H22  1  -0.87106729  -0.41438180  0.16905914  1.0
  H  H23  1  -1.04331434  -0.44405854  0.10205635  1.0
  H  H18  1  -0.43803060  -0.39487654  -0.11346462  1.0
  H  H19  1  -0.35975963  -0.23449202  -0.07706559  1.0
  H  H20  1  -0.24983183  -0.33946681  -0.04722726  1.0
